<?xml version="1.0" encoding="utf-8"?>
<LinearLayout
    xmlns:android="http://schemas.android.com/apk/res/android"
    xmlns:app="http://schemas.android.com/apk/res-auto"
    android:layout_width="match_parent"
    android:layout_height="@dimen/dp_70"
    android:layout_marginBottom="@dimen/dp_8"
    android:background="@drawable/bg_item_selector"
    android:clickable="true"
    android:gravity="center_vertical"
    android:orientation="horizontal"
    android:paddingLeft="@dimen/dp_28"
    android:paddingRight="@dimen/dp_24">

    <net.soulwolf.widget.ratiolayout.widget.RatioImageView
        android:layout_width="@dimen/dp_39"
        android:layout_height="wrap_content"
        android:src="@drawable/bankcard_icon_add"
        app:layoutAspectRatio="1" />

    <TextView
        android:layout_width="wrap_content"
        android:layout_height="wrap_content"
        android:layout_marginLeft="@dimen/dp_7"
        android:singleLine="true"
        android:text="Add Bank Card"
        android:textColor="#333333"
        android:textSize="@dimen/sp_15" />

    <Space
        android:layout_width="0dp"
        android:layout_height="wrap_content"
        android:layout_weight="1" />


    <ImageView
        android:layout_width="wrap_content"
        android:layout_height="wrap_content"
        android:layout_marginLeft="@dimen/dp_24"
        android:src="@drawable/icon_right" />

</LinearLayout>